Version 4
SHEET 1 2916 2164
WIRE -816 -688 -816 -784
WIRE -816 -528 -816 -608
WIRE -816 -432 -816 -528
WIRE -1040 -400 -1440 -400
WIRE -880 -384 -976 -384
WIRE -1040 -368 -1104 -368
WIRE -1104 -224 -1104 -368
WIRE -1056 -224 -1104 -224
WIRE -816 -224 -816 -336
WIRE -816 -224 -976 -224
WIRE 32 -224 -816 -224
WIRE 80 -224 32 -224
WIRE 240 -224 160 -224
WIRE 384 -224 240 -224
WIRE 512 -208 448 -208
WIRE 704 -208 512 -208
WIRE -2256 -192 -2320 -192
WIRE -1104 -192 -1104 -224
WIRE 240 -192 240 -224
WIRE 384 -192 352 -192
WIRE -2704 -144 -2704 -208
WIRE 32 -96 32 -224
WIRE 512 -96 512 -208
WIRE -2224 -16 -2224 -80
WIRE -2096 -16 -2096 -80
WIRE -2096 -16 -2224 -16
WIRE -1104 16 -1104 -112
WIRE 32 64 32 -16
WIRE 80 64 32 64
WIRE 352 64 352 -192
WIRE 352 64 160 64
WIRE 512 64 512 -16
WIRE 512 64 352 64
WIRE -1312 352 -1312 304
WIRE -2656 368 -2656 304
WIRE -912 384 -912 368
WIRE -912 432 -912 384
WIRE -912 432 -1168 432
WIRE -2656 480 -2656 448
WIRE -2944 528 -2976 528
WIRE -2656 528 -2656 480
WIRE -1312 528 -1312 432
WIRE -912 544 -912 432
WIRE -2944 576 -2944 528
WIRE -2944 576 -3040 576
WIRE -2896 576 -2944 576
WIRE -2720 576 -2816 576
WIRE -1168 576 -1168 432
WIRE -1120 576 -1168 576
WIRE -976 592 -1056 592
WIRE -1312 608 -1312 528
WIRE -1120 608 -1312 608
WIRE 32 656 32 64
WIRE -3040 672 -3040 576
WIRE -912 704 -912 640
WIRE -752 704 -912 704
WIRE -656 704 -752 704
WIRE -528 704 -576 704
WIRE -336 704 -528 704
WIRE -160 704 -256 704
WIRE -32 704 -160 704
WIRE -3648 784 -3648 560
WIRE -2656 800 -2656 624
WIRE 32 944 32 752
WIRE -1440 1120 -1488 1120
WIRE -2144 1152 -2304 1152
WIRE -2000 1152 -2144 1152
WIRE -1760 1152 -2000 1152
WIRE -1440 1184 -1440 1120
WIRE -1440 1184 -1568 1184
WIRE -1312 1184 -1312 608
WIRE -1312 1184 -1440 1184
WIRE -1760 1216 -1904 1216
WIRE -1904 1232 -1904 1216
WIRE 400 1232 336 1232
WIRE 592 1248 464 1248
WIRE 704 1248 592 1248
WIRE 864 1248 784 1248
WIRE 1008 1248 864 1248
WIRE 400 1264 336 1264
WIRE 1136 1264 1072 1264
WIRE 864 1280 864 1248
WIRE 1008 1280 976 1280
WIRE 1136 1376 1136 1264
WIRE 336 1424 336 1264
WIRE 592 1424 592 1248
WIRE 592 1424 336 1424
WIRE -2304 1440 -2304 1152
WIRE -1728 1456 -1728 1392
WIRE -1600 1456 -1600 1392
WIRE -1600 1456 -1728 1456
WIRE -2512 1472 -2752 1472
WIRE -2368 1488 -2448 1488
WIRE -2512 1504 -2560 1504
WIRE 432 1520 368 1520
WIRE 624 1536 496 1536
WIRE 704 1536 624 1536
WIRE 976 1536 976 1280
WIRE 976 1536 784 1536
WIRE 1136 1536 1136 1456
WIRE 1136 1536 976 1536
WIRE 432 1552 368 1552
WIRE -2560 1648 -2560 1504
WIRE -2304 1648 -2304 1536
WIRE -2304 1648 -2560 1648
WIRE -2304 1712 -2304 1648
WIRE 368 1712 368 1552
WIRE 624 1712 624 1536
WIRE 624 1712 368 1712
WIRE -2304 1824 -2304 1792
FLAG 240 -112 0
FLAG 1248 -176 VCC1
IOPIN 1248 -176 In
FLAG 416 -176 VCC1
IOPIN 416 -176 In
FLAG 1248 -96 0
FLAG 416 -240 0
FLAG 704 -208 VSHUNT
IOPIN 704 -208 In
FLAG 32 944 0
FLAG -3648 864 0
FLAG 32 64 VC
IOPIN 32 64 In
FLAG 32 -224 V33
IOPIN 32 -224 In
FLAG -1008 -352 VCC1
IOPIN -1008 -352 In
FLAG -1008 -416 0
FLAG -1104 16 0
FLAG -3648 560 V3
IOPIN -3648 560 In
FLAG -1088 560 VCC1
IOPIN -1088 560 In
FLAG -752 704 Vcourant
IOPIN -752 704 In
FLAG -528 704 VBQ1
IOPIN -528 704 In
FLAG 864 1360 0
FLAG 1040 1296 VCC1
IOPIN 1040 1296 In
FLAG 1040 1232 0
FLAG 1136 1264 ImageIB
IOPIN 1136 1264 In
FLAG 336 1232 Vcourant
IOPIN 336 1232 In
FLAG 368 1520 VBQ1
IOPIN 368 1520 In
FLAG 464 1504 0
FLAG 464 1568 VCC1
IOPIN 464 1568 In
FLAG -1312 304 VCC1
IOPIN -1312 304 In
FLAG -816 -784 VCC1
IOPIN -816 -784 In
FLAG -912 288 VCC1
IOPIN -912 288 In
FLAG -160 704 Point
IOPIN -160 704 In
FLAG -816 -528 VR22BAS
IOPIN -816 -528 In
FLAG -912 384 VCQ3
IOPIN -912 384 In
FLAG -1312 528 VBB
IOPIN -1312 528 In
FLAG -1088 624 0
FLAG 432 1216 0
FLAG 432 1280 VCC1
IOPIN 432 1280 In
FLAG -2480 1520 VCC1
IOPIN -2480 1520 In
FLAG -2480 1456 0
FLAG -2304 1824 0
FLAG -2704 -64 0
FLAG -2256 -256 V2
IOPIN -2256 -256 In
FLAG -2704 -208 V2
IOPIN -2704 -208 In
FLAG -2064 -288 D1
IOPIN -2064 -288 In
FLAG -2160 -384 VCC1
IOPIN -2160 -384 In
FLAG -2256 -320 V3
IOPIN -2256 -320 In
FLAG -2752 1472 V3
IOPIN -2752 1472 In
FLAG -1488 1120 D2
IOPIN -1488 1120 In
FLAG -1600 1456 0
FLAG -1664 1088 VCC1
IOPIN -1664 1088 In
FLAG -1440 -400 D1
IOPIN -1440 -400 In
FLAG -1904 1312 0
FLAG -2096 -16 0
FLAG -2656 800 0
FLAG -2320 -192 IN1
IOPIN -2320 -192 In
FLAG -2656 480 IN1
IOPIN -2656 480 In
FLAG -2976 528 IN2
IOPIN -2976 528 In
FLAG -1760 1280 IN2
IOPIN -1760 1280 In
FLAG -3040 752 0
FLAG -2144 1232 0
FLAG -2000 1152 VCQ4
IOPIN -2000 1152 In
FLAG -2656 304 V2
IOPIN -2656 304 In
SYMBOL npn -32 656 R0
SYMATTR InstName Q1
SYMATTR Value 2N2222
SYMBOL res 16 -112 R0
SYMATTR InstName R1
SYMATTR Value 10
SYMBOL res 224 -208 R0
SYMATTR InstName R2
SYMATTR Value 100k
SYMBOL res 176 -240 R90
WINDOW 0 0 56 VBottom 2
WINDOW 3 32 56 VTop 2
SYMATTR InstName R3
SYMATTR Value 10k
SYMBOL res 528 0 R180
WINDOW 0 36 76 Left 2
WINDOW 3 36 40 Left 2
SYMATTR InstName R4
SYMATTR Value 100k
SYMBOL res 176 48 R90
WINDOW 0 0 56 VBottom 2
WINDOW 3 32 56 VTop 2
SYMATTR InstName R5
SYMATTR Value 10k
SYMBOL voltage 1248 -192 R0
WINDOW 123 0 0 Left 0
WINDOW 39 0 0 Left 0
SYMATTR InstName V1
SYMATTR Value 12
SYMBOL voltage -3648 768 R0
WINDOW 123 0 0 Left 0
WINDOW 39 0 0 Left 0
SYMATTR InstName V3
SYMATTR Value 3
SYMBOL res -960 -240 R90
WINDOW 0 0 56 VBottom 2
WINDOW 3 32 56 VTop 2
SYMATTR InstName R7
SYMATTR Value 820
SYMBOL res -1120 -208 R0
SYMATTR InstName R8
SYMATTR Value 1k
SYMBOL res -672 688 M90
WINDOW 0 0 56 VBottom 2
WINDOW 3 32 56 VTop 2
SYMATTR InstName R6
SYMATTR Value 500
SYMBOL res -240 688 R90
WINDOW 0 0 56 VBottom 2
WINDOW 3 32 56 VTop 2
SYMATTR InstName R11
SYMATTR Value 1
SYMBOL OpAmps\\LT1006 1040 1328 M180
SYMATTR InstName U4
SYMBOL res 848 1264 R0
SYMATTR InstName R13
SYMATTR Value 200K
SYMBOL res 800 1232 R90
WINDOW 0 0 56 VBottom 2
WINDOW 3 32 56 VTop 2
SYMATTR InstName R14
SYMATTR Value 10k
SYMBOL res 1152 1472 R180
WINDOW 0 36 76 Left 2
WINDOW 3 36 40 Left 2
SYMATTR InstName R15
SYMATTR Value 200K
SYMBOL res 800 1520 R90
WINDOW 0 0 56 VBottom 2
WINDOW 3 32 56 VTop 2
SYMATTR InstName R16
SYMATTR Value 10k
SYMBOL OpAmps\\LT1006 464 1600 M180
SYMATTR InstName U5
SYMBOL res -1328 336 R0
SYMATTR InstName R9
SYMATTR Value 4.7K
SYMBOL npn -880 -432 R0
SYMATTR InstName Q2
SYMATTR Value 2N2222
SYMBOL res -832 -704 R0
SYMATTR InstName R22
SYMATTR Value 10
SYMBOL res -896 384 R180
WINDOW 0 36 76 Left 2
WINDOW 3 36 40 Left 2
SYMATTR InstName R21
SYMATTR Value 12K
SYMBOL pnp -976 640 M180
SYMATTR InstName Q3
SYMATTR Value 2N2907
SYMBOL OpAmps\\UniversalOpAmp2 -1088 592 R0
SYMATTR InstName U6
SYMBOL OpAmps\\LT1006 432 1312 M180
SYMATTR InstName U3
SYMBOL OpAmps\\UniversalOpAmp2 -1008 -384 M180
SYMATTR InstName U7
SYMBOL OpAmps\\UniversalOpAmp2 416 -208 M180
SYMATTR InstName U1
SYMBOL OpAmps\\UniversalOpAmp2 -2480 1488 M180
SYMATTR InstName U2
SYMBOL npn -2368 1440 R0
SYMATTR InstName Q4
SYMATTR Value 2N2222
SYMBOL res -2320 1696 R0
SYMATTR InstName R10
SYMATTR Value 3.9k
SYMBOL voltage -2704 -160 R0
WINDOW 123 0 0 Left 0
WINDOW 39 0 0 Left 0
SYMATTR InstName V2
SYMATTR Value 3
SYMBOL Switches\\ADG436 -2160 -240 R0
SYMATTR InstName U8
SYMBOL Switches\\ADG436 -1664 1232 R0
SYMATTR InstName U9
SYMBOL res -1920 1216 R0
SYMATTR InstName R12
SYMATTR Value 18k
SYMBOL npn -2720 528 R0
SYMATTR InstName Q5
SYMATTR Value 2N2222
SYMBOL res -2672 352 R0
SYMATTR InstName R17
SYMATTR Value 1k
SYMBOL res -2800 560 R90
WINDOW 0 0 56 VBottom 2
WINDOW 3 32 56 VTop 2
SYMATTR InstName R18
SYMATTR Value 10k
SYMBOL voltage -3040 656 R0
WINDOW 123 0 0 Left 0
WINDOW 39 0 0 Left 0
SYMATTR InstName V4
SYMATTR Value 0
SYMBOL res -2160 1136 R0
SYMATTR InstName R19
SYMATTR Value 1000K
TEXT -3704 456 Left 2 !.dc V3 0 3 0.001
TEXT 384 1056 Left 6 ;CONVERSION IB EN TENSION
TEXT 128 704 Left 6 ;NPN A TESTER
TEXT -1400 -1056 Left 5 ;AMPLIFICATION EN TENSION ET EN COURANT
TEXT -112 -512 Left 6 ;CONVERSION IC EN TENSION
TEXT 936 -512 Left 6 ;ALIMENTATION AOP
TEXT -1112 792 Left 6 ;GENE COURANT BASE
TEXT -3200 -104 Left 5 ;Tension fixe pour VCE
TEXT -976 1544 Left 5 ;Rampe pour IB (DAC)
RECTANGLE Normal 1312 1856 272 1104
RECTANGLE Normal 112 816 -48 608
RECTANGLE Normal -528 96 -1376 -944
RECTANGLE Normal 800 208 -160 -432
RECTANGLE Normal 1472 208 1008 -432
RECTANGLE Normal -464 864 -1424 192
CIRCLE Normal 48 608 16 576
CIRCLE Normal 48 848 16 816
CIRCLE Normal -48 720 -80 688
